<?xml version="1.0" encoding="UTF-8"?>

<!-- generated on Mon Apr 29 07:21:09 2024 by Eclipse SUMO duarouter Version 1.5.0
<configuration xmlns:xsi="http://www.w3.org/2001/XMLSchema-instance" xsi:noNamespaceSchemaLocation="http://sumo.dlr.de/xsd/duarouterConfiguration.xsd">

    <input>
        <net-file value="/home/f2md/F2MD/Programs/sumo-1.5.0/tools/2024-04-29-07-21-04/osm.net.xml"/>
        <route-files value="/home/f2md/F2MD/Programs/sumo-1.5.0/tools/2024-04-29-07-21-04/osm.passenger.trips.xml"/>
    </input>

    <output>
        <output-file value="/home/f2md/F2MD/Programs/sumo-1.5.0/tools/2024-04-29-07-21-04/osm.passenger.trips.xml.tmp"/>
        <write-trips value="true"/>
    </output>

    <time>
        <begin value="0"/>
        <end value="3600.0"/>
    </time>

    <report>
        <no-warnings value="true"/>
        <ignore-errors value="true"/>
        <no-step-log value="true"/>
    </report>

</configuration>
-->

<routes xmlns:xsi="http://www.w3.org/2001/XMLSchema-instance" xsi:noNamespaceSchemaLocation="http://sumo.dlr.de/xsd/routes_file.xsd">
    <vType id="veh_passenger" vClass="passenger"/>
    <trip id="veh1" type="veh_passenger" depart="7.22" departLane="best" from="-87891923#4" to="-524218107#1"/>
    <trip id="veh2" type="veh_passenger" depart="14.44" departLane="best" from="42105884#2" to="40855894#3"/>
    <trip id="veh3" type="veh_passenger" depart="21.66" departLane="best" departSpeed="max" from="763316993#0" to="-14686070#3"/>
    <trip id="veh6" type="veh_passenger" depart="43.31" departLane="best" departSpeed="max" from="-1051328773" to="-4491290#1"/>
    <trip id="veh9" type="veh_passenger" depart="64.97" departLane="best" departSpeed="max" from="4999487#0" to="-1051328766#1"/>
    <trip id="veh10" type="veh_passenger" depart="72.18" departLane="best" departSpeed="max" from="4999487#0" to="41658314#1"/>
    <trip id="veh13" type="veh_passenger" depart="93.84" departLane="best" departSpeed="max" from="4999487#0" to="43065375"/>
    <trip id="veh15" type="veh_passenger" depart="108.28" departLane="best" from="635225151#1" to="344610057#0"/>
    <trip id="veh17" type="veh_passenger" depart="122.71" departLane="best" from="-635225151#5" to="1051328771"/>
    <trip id="veh19" type="veh_passenger" depart="137.15" departLane="best" from="33051124#3" to="130381257#1"/>
    <trip id="veh24" type="veh_passenger" depart="173.24" departLane="best" from="95305149#2" to="356897484#0"/>
    <trip id="veh25" type="veh_passenger" depart="180.46" departLane="best" from="23066600" to="41568993#1"/>
    <trip id="veh26" type="veh_passenger" depart="187.68" departLane="best" from="664696167" to="4492721"/>
    <trip id="veh30" type="veh_passenger" depart="216.55" departLane="best" departSpeed="max" from="703438538" to="1063261556#3"/>
    <trip id="veh33" type="veh_passenger" depart="238.21" departLane="best" from="30827005" to="78591194#3"/>
    <trip id="veh35" type="veh_passenger" depart="252.64" departLane="best" departSpeed="max" from="95305157#0" to="212472726#1"/>
    <trip id="veh38" type="veh_passenger" depart="274.30" departLane="best" from="4492029#0" to="148000421#2"/>
    <trip id="veh42" type="veh_passenger" depart="303.17" departLane="best" from="-1051328767" to="42974938"/>
    <trip id="veh43" type="veh_passenger" depart="310.39" departLane="best" departSpeed="max" from="370907124#0" to="23066270#2"/>
    <trip id="veh46" type="veh_passenger" depart="332.04" departLane="best" departSpeed="max" from="2000381#0" to="804574510#1"/>
    <trip id="veh54" type="veh_passenger" depart="389.79" departLane="best" departSpeed="max" from="703438538" to="804574510#1"/>
    <trip id="veh55" type="veh_passenger" depart="397.01" departLane="best" from="-2000382#0" to="212456661#3"/>
    <trip id="veh57" type="veh_passenger" depart="411.45" departLane="best" from="2000382#0" to="23066316#1"/>
    <trip id="veh60" type="veh_passenger" depart="433.10" departLane="best" from="148000421#0" to="213548271#1"/>
    <trip id="veh63" type="veh_passenger" depart="454.76" departLane="best" from="-635225151#6" to="78591195#1"/>
    <trip id="veh68" type="veh_passenger" depart="490.85" departLane="best" departSpeed="max" from="4999487#0" to="-41658314#5"/>
    <trip id="veh69" type="veh_passenger" depart="498.07" departLane="best" departSpeed="max" from="-2000685#4" to="2000381#10"/>
    <trip id="veh70" type="veh_passenger" depart="505.28" departLane="best" departSpeed="max" from="14665697#0" to="20285097#5"/>
    <trip id="veh71" type="veh_passenger" depart="512.50" departLane="best" from="418102681" to="40855894#3"/>
    <trip id="veh73" type="veh_passenger" depart="526.94" departLane="best" departSpeed="max" from="144432633#0" to="1086232359#0"/>
    <trip id="veh76" type="veh_passenger" depart="548.59" departLane="best" from="-78591195#0" to="800741949#1"/>
    <trip id="veh79" type="veh_passenger" depart="570.25" departLane="best" departSpeed="max" from="95305157#0" to="664696164"/>
    <trip id="veh86" type="veh_passenger" depart="620.78" departLane="best" departSpeed="max" from="2000381#0" to="148000421#2"/>
    <trip id="veh87" type="veh_passenger" depart="628.00" departLane="best" departSpeed="max" from="813733765" to="95305149#1"/>
    <trip id="veh88" type="veh_passenger" depart="635.21" departLane="best" from="23066316#2" to="42105885#0"/>
    <trip id="veh89" type="veh_passenger" depart="642.43" departLane="best" from="-344610057#0" to="1051328773"/>
    <trip id="veh93" type="veh_passenger" depart="671.31" departLane="best" from="-344610057#2" to="804574510#1"/>
    <trip id="veh94" type="veh_passenger" depart="678.52" departLane="best" from="-14686070#3" to="-41658313#2"/>
    <trip id="veh98" type="veh_passenger" depart="707.40" departLane="best" departSpeed="max" from="14665697#0" to="30827004"/>
    <trip id="veh100" type="veh_passenger" depart="721.83" departLane="best" from="-4491292#3" to="42105885#0"/>
    <trip id="veh102" type="veh_passenger" depart="736.27" departLane="best" departSpeed="max" from="363454#0" to="1051328773"/>
    <trip id="veh104" type="veh_passenger" depart="750.71" departLane="best" from="-146532693#3" to="20285097#0"/>
    <trip id="veh110" type="veh_passenger" depart="794.02" departLane="best" from="35403955" to="-1051328766#1"/>
    <trip id="veh113" type="veh_passenger" depart="815.67" departLane="best" departSpeed="max" from="-213548271#6" to="23511995#0"/>
    <trip id="veh116" type="veh_passenger" depart="837.33" departLane="best" from="20285097#2" to="78591195#1"/>
    <trip id="veh117" type="veh_passenger" depart="844.55" departLane="best" from="664696167" to="-2000382#1"/>
    <trip id="veh118" type="veh_passenger" depart="851.76" departLane="best" from="-1051328766#0" to="4491292#6"/>
    <trip id="veh123" type="veh_passenger" depart="887.86" departLane="best" from="635225151#5" to="30827004"/>
    <trip id="veh125" type="veh_passenger" depart="902.29" departLane="best" from="4492721" to="754409778#1"/>
    <trip id="veh128" type="veh_passenger" depart="923.95" departLane="best" from="144432633#1" to="344610057#1"/>
    <trip id="veh134" type="veh_passenger" depart="967.26" departLane="best" from="476017363" to="754409778#1"/>
    <trip id="veh137" type="veh_passenger" depart="988.91" departLane="best" departSpeed="max" from="703438538" to="754409778#1"/>
    <trip id="veh139" type="veh_passenger" depart="1003.35" departLane="best" departSpeed="max" from="-1051328773" to="-41658315#1"/>
    <trip id="veh141" type="veh_passenger" depart="1017.79" departLane="best" from="87891921" to="-95305149#5"/>
    <trip id="veh144" type="veh_passenger" depart="1039.44" departLane="best" from="87891923#1" to="-370907124#6"/>
    <trip id="veh149" type="veh_passenger" depart="1075.53" departLane="best" departSpeed="max" from="-78591195#1" to="42105884#0"/>
    <trip id="veh150" type="veh_passenger" depart="1082.75" departLane="best" from="-1051328766#0" to="800741949#3"/>
    <trip id="veh152" type="veh_passenger" depart="1097.19" departLane="best" from="42105885#0" to="40855894#3"/>
    <trip id="veh156" type="veh_passenger" depart="1126.06" departLane="best" from="41658312#4" to="1051328773"/>
    <trip id="veh157" type="veh_passenger" depart="1133.28" departLane="best" departSpeed="max" from="144432633#0" to="1051328773"/>
    <trip id="veh159" type="veh_passenger" depart="1147.72" departLane="best" departSpeed="max" from="804574511#0" to="41516988"/>
    <trip id="veh160" type="veh_passenger" depart="1154.93" departLane="best" from="78591195#0" to="33051124#2"/>
    <trip id="veh164" type="veh_passenger" depart="1183.81" departLane="best" from="-2000382#0" to="213548271#1"/>
    <trip id="veh172" type="veh_passenger" depart="1241.55" departLane="best" from="-4491290#2" to="41658313#1"/>
    <trip id="veh173" type="veh_passenger" depart="1248.77" departLane="best" from="20285097#5" to="-800741949#2"/>
    <trip id="veh174" type="veh_passenger" depart="1255.99" departLane="best" from="35403986" to="-1051328766#1"/>
    <trip id="veh175" type="veh_passenger" depart="1263.21" departLane="best" from="43052949#0" to="4491292#5"/>
    <trip id="veh176" type="veh_passenger" depart="1270.43" departLane="best" departSpeed="max" from="-213548271#6" to="193846782#0"/>
    <trip id="veh177" type="veh_passenger" depart="1277.65" departLane="best" from="-41658314#1" to="804574510#1"/>
    <trip id="veh182" type="veh_passenger" depart="1313.74" departLane="best" departSpeed="max" from="763316993#0" to="33051124#0"/>
    <trip id="veh183" type="veh_passenger" depart="1320.96" departLane="best" from="41658312#4" to="212472726#1"/>
    <trip id="veh184" type="veh_passenger" depart="1328.17" departLane="best" from="635225151#2" to="23066316#0"/>
    <trip id="veh188" type="veh_passenger" depart="1357.05" departLane="best" from="328376708#1" to="-95305149#1"/>
    <trip id="veh189" type="veh_passenger" depart="1364.27" departLane="best" from="-14686070#0" to="1051328767"/>
    <trip id="veh194" type="veh_passenger" depart="1400.36" departLane="best" from="146532697#1" to="-4491292#1"/>
    <trip id="veh195" type="veh_passenger" depart="1407.58" departLane="best" from="30827005" to="41658313#1"/>
    <trip id="veh197" type="veh_passenger" depart="1422.01" departLane="best" from="139376493#0" to="-1051328766#1"/>
    <trip id="veh200" type="veh_passenger" depart="1443.67" departLane="best" departSpeed="max" from="14665697#0" to="4491159#1"/>
    <trip id="veh204" type="veh_passenger" depart="1472.54" departLane="best" from="1086232359#0" to="41529339#0"/>
    <trip id="veh207" type="veh_passenger" depart="1494.20" departLane="best" departSpeed="max" from="-1051328773" to="363454#1"/>
    <trip id="veh212" type="veh_passenger" depart="1530.29" departLane="best" from="43053605#0" to="664696164"/>
    <trip id="veh217" type="veh_passenger" depart="1566.38" departLane="best" departSpeed="max" from="804574511#0" to="-4491290#2"/>
    <trip id="veh218" type="veh_passenger" depart="1573.60" departLane="best" departSpeed="max" from="-1051328773" to="-328376708#2"/>
    <trip id="veh221" type="veh_passenger" depart="1595.25" departLane="best" from="40589983#1" to="4491292#3"/>
    <trip id="veh222" type="veh_passenger" depart="1602.47" departLane="best" from="-40589983#0" to="328376708#1"/>
    <trip id="veh229" type="veh_passenger" depart="1653.00" departLane="best" from="-23066270#17" to="87891923#4"/>
    <trip id="veh232" type="veh_passenger" depart="1674.65" departLane="best" from="212456661#1" to="1086232359#1"/>
    <trip id="veh234" type="veh_passenger" depart="1689.09" departLane="best" departSpeed="max" from="-213548271#6" to="804574510#1"/>
    <trip id="veh235" type="veh_passenger" depart="1696.31" departLane="best" from="33051124#3" to="664696164"/>
    <trip id="veh239" type="veh_passenger" depart="1725.18" departLane="best" from="148000421#0" to="43065375"/>
    <trip id="veh241" type="veh_passenger" depart="1739.62" departLane="best" from="635225151#2" to="-14686070#3"/>
    <trip id="veh242" type="veh_passenger" depart="1746.84" departLane="best" departSpeed="max" from="703438538" to="-800741949#2"/>
    <trip id="veh247" type="veh_passenger" depart="1782.93" departLane="best" from="40633730#0" to="-95305149#2"/>
    <trip id="veh248" type="veh_passenger" depart="1790.15" departLane="best" from="-1051328767" to="804574510#1"/>
    <trip id="veh249" type="veh_passenger" depart="1797.37" departLane="best" from="-2000382#0" to="42974938"/>
    <trip id="veh251" type="veh_passenger" depart="1811.80" departLane="best" from="20285097#2" to="47520678#0"/>
    <trip id="veh253" type="veh_passenger" depart="1826.24" departLane="best" from="40048880#0" to="1051328773"/>
    <trip id="veh265" type="veh_passenger" depart="1912.86" departLane="best" departSpeed="max" from="703438538" to="212472718"/>
    <trip id="veh266" type="veh_passenger" depart="1920.08" departLane="best" departSpeed="max" from="703438538" to="277998860"/>
    <trip id="veh272" type="veh_passenger" depart="1963.39" departLane="best" from="237399470#0" to="1051328773"/>
    <trip id="veh276" type="veh_passenger" depart="1992.26" departLane="best" from="42105884#3" to="804574510#1"/>
    <trip id="veh277" type="veh_passenger" depart="1999.48" departLane="best" from="-1051328766#0" to="2000685#3"/>
    <trip id="veh279" type="veh_passenger" depart="2013.92" departLane="best" departSpeed="max" from="-767807445#1" to="42105883"/>
    <trip id="veh280" type="veh_passenger" depart="2021.13" departLane="best" from="40633730#1" to="2000685#4"/>
    <trip id="veh291" type="veh_passenger" depart="2100.54" departLane="best" departSpeed="max" from="804574511#0" to="212472726#1"/>
    <trip id="veh292" type="veh_passenger" depart="2107.75" departLane="best" from="20285097#5" to="-14665697#2"/>
    <trip id="veh295" type="veh_passenger" depart="2129.41" departLane="best" from="-2000685#3" to="804574510#1"/>
    <trip id="veh297" type="veh_passenger" depart="2143.85" departLane="best" departSpeed="max" from="804574511#0" to="95305149#5"/>
    <trip id="veh304" type="veh_passenger" depart="2194.37" departLane="best" from="-95305149#5" to="804574510#1"/>
    <trip id="veh305" type="veh_passenger" depart="2201.59" departLane="best" departSpeed="max" from="2000381#0" to="1063261556#3"/>
    <trip id="veh307" type="veh_passenger" depart="2216.03" departLane="best" departSpeed="max" from="144432633#0" to="213548271#1"/>
    <trip id="veh308" type="veh_passenger" depart="2223.25" departLane="best" from="95305149#1" to="40048880#2"/>
    <trip id="veh316" type="veh_passenger" depart="2280.99" departLane="best" from="-344610057#2" to="23066316#2"/>
    <trip id="veh317" type="veh_passenger" depart="2288.21" departLane="best" from="23066316#0" to="-2000382#1"/>
    <trip id="veh318" type="veh_passenger" depart="2295.43" departLane="best" from="95305149#5" to="800738531#1"/>
    <trip id="veh320" type="veh_passenger" depart="2309.87" departLane="best" from="635225151#3" to="212472725#0"/>
    <trip id="veh321" type="veh_passenger" depart="2317.09" departLane="best" from="41658312#2" to="212472726#1"/>
    <trip id="veh325" type="veh_passenger" depart="2345.96" departLane="best" from="804574483#2" to="212472726#1"/>
    <trip id="veh326" type="veh_passenger" depart="2353.18" departLane="best" departSpeed="max" from="703438538" to="754409778#1"/>
    <trip id="veh330" type="veh_passenger" depart="2382.05" departLane="best" from="30827007#0" to="95305149#5"/>
    <trip id="veh331" type="veh_passenger" depart="2389.27" departLane="best" from="20285097#2" to="-328376708#0"/>
    <trip id="veh336" type="veh_passenger" depart="2425.36" departLane="best" departSpeed="max" from="4999487#0" to="138481199#1"/>
    <trip id="veh340" type="veh_passenger" depart="2454.23" departLane="best" from="308451759#1" to="75465436"/>
    <trip id="veh341" type="veh_passenger" depart="2461.45" departLane="best" departSpeed="max" from="703438538" to="2000381#9"/>
    <trip id="veh348" type="veh_passenger" depart="2511.98" departLane="best" from="804574483#2" to="95305149#3"/>
    <trip id="veh349" type="veh_passenger" depart="2519.20" departLane="best" from="42974938" to="2000381#12"/>
    <trip id="veh351" type="veh_passenger" depart="2533.64" departLane="best" departSpeed="max" from="703438538" to="2000382#0"/>
    <trip id="veh352" type="veh_passenger" depart="2540.85" departLane="best" from="40048880#1" to="78591195#0"/>
    <trip id="veh355" type="veh_passenger" depart="2562.51" departLane="best" from="237399472" to="47520678#0"/>
    <trip id="veh356" type="veh_passenger" depart="2569.73" departLane="best" from="-40633730#0" to="-14665697#0"/>
    <trip id="veh357" type="veh_passenger" depart="2576.95" departLane="best" departSpeed="max" from="703438538" to="344610057#0"/>
    <trip id="veh358" type="veh_passenger" depart="2584.16" departLane="best" from="-78591194#2" to="800738531#1"/>
    <trip id="veh361" type="veh_passenger" depart="2605.82" departLane="best" from="78591194#2" to="41516988"/>
    <trip id="veh363" type="veh_passenger" depart="2620.26" departLane="best" from="344610057#0" to="193846782#0"/>
    <trip id="veh364" type="veh_passenger" depart="2627.47" departLane="best" departSpeed="max" from="-78591195#1" to="664696164"/>
    <trip id="veh365" type="veh_passenger" depart="2634.69" departLane="best" from="-4491290#5" to="138481199#1"/>
    <trip id="veh366" type="veh_passenger" depart="2641.91" departLane="best" from="20285097#0" to="-78591194#1"/>
    <trip id="veh372" type="veh_passenger" depart="2685.22" departLane="best" from="20285213" to="78591195#1"/>
    <trip id="veh376" type="veh_passenger" depart="2714.09" departLane="best" departSpeed="max" from="356897481" to="664696164"/>
    <trip id="veh377" type="veh_passenger" depart="2721.31" departLane="best" from="328376708#2" to="78591195#0"/>
    <trip id="veh380" type="veh_passenger" depart="2742.97" departLane="best" from="42105883" to="-14686070#5"/>
    <trip id="veh381" type="veh_passenger" depart="2750.19" departLane="best" from="1051328767" to="4491159#1"/>
    <trip id="veh382" type="veh_passenger" depart="2757.40" departLane="best" from="-41658314#1" to="-23066316#2"/>
    <trip id="veh386" type="veh_passenger" depart="2786.28" departLane="best" from="5376746#0" to="212456661#1"/>
    <trip id="veh388" type="veh_passenger" depart="2800.71" departLane="best" from="87891919#3" to="-328375811#2"/>
    <trip id="veh389" type="veh_passenger" depart="2807.93" departLane="best" from="87891921" to="754409778#1"/>
    <trip id="veh394" type="veh_passenger" depart="2844.02" departLane="best" departSpeed="max" from="2000381#0" to="40855894#3"/>
    <trip id="veh395" type="veh_passenger" depart="2851.24" departLane="best" departSpeed="max" from="363454#0" to="30827004"/>
    <trip id="veh399" type="veh_passenger" depart="2880.12" departLane="best" from="237399470#0" to="800738531#1"/>
    <trip id="veh402" type="veh_passenger" depart="2901.77" departLane="best" from="-23066316#2" to="804574510#1"/>
    <trip id="veh403" type="veh_passenger" depart="2908.99" departLane="best" departSpeed="max" from="-2000685#4" to="767807445#0"/>
    <trip id="veh405" type="veh_passenger" depart="2923.43" departLane="best" departSpeed="max" from="363454#0" to="4491159#0"/>
    <trip id="veh406" type="veh_passenger" depart="2930.64" departLane="best" departSpeed="max" from="804574511#0" to="148000421#0"/>
    <trip id="veh408" type="veh_passenger" depart="2945.08" departLane="best" from="20285097#2" to="14665697#2"/>
    <trip id="veh412" type="veh_passenger" depart="2973.95" departLane="best" departSpeed="max" from="-2000685#4" to="41568993#1"/>
    <trip id="veh416" type="veh_passenger" depart="3002.83" departLane="best" from="4491292#4" to="-800741949#1"/>
    <trip id="veh421" type="veh_passenger" depart="3038.92" departLane="best" from="-328375811#1" to="78591194#3"/>
    <trip id="veh422" type="veh_passenger" depart="3046.14" departLane="best" from="-1051328766#0" to="754409778#1"/>
    <trip id="veh423" type="veh_passenger" depart="3053.36" departLane="best" from="-328375346" to="-23066316#1"/>
    <trip id="veh426" type="veh_passenger" depart="3075.01" departLane="best" from="-1051328772" to="47520678#0"/>
    <trip id="veh430" type="veh_passenger" depart="3103.88" departLane="best" from="4491290#3" to="212472726#1"/>
    <trip id="veh431" type="veh_passenger" depart="3111.10" departLane="best" departSpeed="max" from="-213548271#6" to="212472726#1"/>
    <trip id="veh433" type="veh_passenger" depart="3125.54" departLane="best" from="4491292#1" to="75465436"/>
    <trip id="veh434" type="veh_passenger" depart="3132.76" departLane="best" from="212472724#0" to="2000685#4"/>
    <trip id="veh436" type="veh_passenger" depart="3147.19" departLane="best" from="2000685#1" to="146532693#1"/>
    <trip id="veh438" type="veh_passenger" depart="3161.63" departLane="best" from="800741949#2" to="-14665697#0"/>
    <trip id="veh439" type="veh_passenger" depart="3168.85" departLane="best" from="-14686070#3" to="328376708#1"/>
    <trip id="veh448" type="veh_passenger" depart="3233.81" departLane="best" from="1086232359#1" to="2000685#4"/>
    <trip id="veh449" type="veh_passenger" depart="3241.03" departLane="best" from="146532697#1" to="-2000685#1"/>
    <trip id="veh451" type="veh_passenger" depart="3255.47" departLane="best" from="635225151#3" to="-2000382#1"/>
    <trip id="veh453" type="veh_passenger" depart="3269.91" departLane="best" departSpeed="max" from="4999487#0" to="237399470#0"/>
    <trip id="veh455" type="veh_passenger" depart="3284.34" departLane="best" departSpeed="max" from="1085521007#0" to="-23066270#3"/>
    <trip id="veh456" type="veh_passenger" depart="3291.56" departLane="best" from="43052949#0" to="75465436"/>
    <trip id="veh459" type="veh_passenger" depart="3313.22" departLane="best" from="252133171#5" to="-4491292#5"/>
    <trip id="veh461" type="veh_passenger" depart="3327.65" departLane="best" departSpeed="max" from="-213548271#6" to="664696164"/>
    <trip id="veh463" type="veh_passenger" depart="3342.09" departLane="best" from="252133171#1" to="520866416"/>
    <trip id="veh476" type="veh_passenger" depart="3435.93" departLane="best" departSpeed="max" from="356897481" to="212456661#3"/>
    <trip id="veh479" type="veh_passenger" depart="3457.58" departLane="best" from="14686070#1" to="1051328766#1"/>
    <trip id="veh485" type="veh_passenger" depart="3500.89" departLane="best" from="-1051328766#1" to="4491159#1"/>
    <trip id="veh486" type="veh_passenger" depart="3508.11" departLane="best" from="-41658314#1" to="138481199#1"/>
    <trip id="veh487" type="veh_passenger" depart="3515.33" departLane="best" from="40802612#0" to="212472726#1"/>
    <trip id="veh489" type="veh_passenger" depart="3529.77" departLane="best" from="-146532693#3" to="754409778#1"/>
    <trip id="veh491" type="veh_passenger" depart="3544.20" departLane="best" from="804574483#2" to="754409778#1"/>
    <trip id="veh493" type="veh_passenger" depart="3558.64" departLane="best" from="41516988" to="14686070#5"/>
    <trip id="veh496" type="veh_passenger" depart="3580.29" departLane="best" from="328375811#3" to="664696164"/>
    <trip id="veh497" type="veh_passenger" depart="3587.51" departLane="best" from="664696167" to="-800741949#1"/>
</routes>
