<?xml version="1.0" encoding="UTF-8"?>

<!-- generated on Mon Apr 29 07:21:06 2024 by Eclipse SUMO netconvert Version 1.5.0
<configuration xmlns:xsi="http://www.w3.org/2001/XMLSchema-instance" xsi:noNamespaceSchemaLocation="http://sumo.dlr.de/xsd/netconvertConfiguration.xsd">

    <input>
        <type-files value="/home/f2md/F2MD/Programs/sumo-1.5.0/data/typemap/osmNetconvert.typ.xml"/>
        <osm-files value="osm_bbox.osm.xml"/>
    </input>

    <output>
        <output-file value="osm.net.xml"/>
        <output.street-names value="true"/>
        <output.original-names value="true"/>
    </output>

    <projection>
        <proj.utm value="true"/>
    </projection>

    <processing>
        <geometry.remove value="true"/>
        <roundabouts.guess value="true"/>
    </processing>

    <tls_building>
        <tls.discard-simple value="true"/>
        <tls.join value="true"/>
        <tls.guess-signals value="true"/>
        <tls.default-type value="actuated"/>
    </tls_building>

    <ramp_guessing>
        <ramps.guess value="true"/>
    </ramp_guessing>

    <junctions>
        <junctions.join value="true"/>
        <junctions.corner-detail value="5"/>
    </junctions>

    <report>
        <verbose value="true"/>
        <aggregate-warnings value="5"/>
    </report>

</configuration>
-->

<net version="1.3" junctionCornerDetail="5" limitTurnSpeed="5.50" xmlns:xsi="http://www.w3.org/2001/XMLSchema-instance" xsi:noNamespaceSchemaLocation="http://sumo.dlr.de/xsd/net_file.xsd">

    <location netOffset="-331486.02,-6581092.51" convBoundary="0.00,0.00,3565.34,2541.22" origBoundary="18.036174,59.335843,18.098801,59.358231" projParameter="+proj=utm +zone=34 +ellps=WGS84 +datum=WGS84 +units=m +no_defs"/>

    <type id="highway.bridleway" priority="1" numLanes="1" speed="2.78" allow="pedestrian" oneway="1" width="2.00"/>
    <type id="highway.bus_guideway" priority="1" numLanes="1" speed="27.78" allow="bus" oneway="1"/>
    <type id="highway.cycleway" priority="1" numLanes="1" speed="8.33" allow="bicycle" oneway="0" width="1.00"/>
    <type id="highway.footway" priority="1" numLanes="1" speed="2.78" allow="pedestrian" oneway="1" width="2.00"/>
    <type id="highway.ford" priority="1" numLanes="1" speed="2.78" allow="army" oneway="0"/>
    <type id="highway.living_street" priority="2" numLanes="1" speed="2.78" disallow="tram rail_urban rail rail_electric rail_fast ship" oneway="0"/>
    <type id="highway.motorway" priority="14" numLanes="2" speed="39.44" allow="private emergency authority army vip passenger hov taxi bus coach delivery truck trailer motorcycle evehicle custom1 custom2" oneway="1"/>
    <type id="highway.motorway_link" priority="9" numLanes="1" speed="22.22" allow="private emergency authority army vip passenger hov taxi bus coach delivery truck trailer motorcycle evehicle custom1 custom2" oneway="1"/>
    <type id="highway.path" priority="1" numLanes="1" speed="2.78" allow="pedestrian bicycle" oneway="1" width="2.00"/>
    <type id="highway.pedestrian" priority="1" numLanes="1" speed="2.78" allow="pedestrian" oneway="1" width="2.00"/>
    <type id="highway.primary" priority="12" numLanes="2" speed="27.78" disallow="tram rail_urban rail rail_electric rail_fast ship" oneway="0"/>
    <type id="highway.primary_link" priority="7" numLanes="1" speed="22.22" disallow="tram rail_urban rail rail_electric rail_fast ship" oneway="0"/>
    <type id="highway.raceway" priority="15" numLanes="2" speed="83.33" allow="vip" oneway="0"/>
    <type id="highway.residential" priority="3" numLanes="1" speed="13.89" disallow="tram rail_urban rail rail_electric rail_fast ship" oneway="0"/>
    <type id="highway.secondary" priority="11" numLanes="1" speed="27.78" disallow="tram rail_urban rail rail_electric rail_fast ship" oneway="0"/>
    <type id="highway.secondary_link" priority="6" numLanes="1" speed="22.22" disallow="tram rail_urban rail rail_electric rail_fast ship" oneway="0"/>
    <type id="highway.service" priority="1" numLanes="1" speed="5.56" allow="pedestrian delivery bicycle" oneway="0"/>
    <type id="highway.stairs" priority="1" numLanes="1" speed="1.39" allow="pedestrian" oneway="1" width="2.00"/>
    <type id="highway.step" priority="1" numLanes="1" speed="1.39" allow="pedestrian" oneway="1" width="2.00"/>
    <type id="highway.steps" priority="1" numLanes="1" speed="1.39" allow="pedestrian" oneway="1" width="2.00"/>
    <type id="highway.tertiary" priority="10" numLanes="1" speed="22.22" disallow="tram rail_urban rail rail_electric rail_fast ship" oneway="0"/>
    <type id="highway.tertiary_link" priority="5" numLanes="1" speed="22.22" disallow="tram rail_urban rail rail_electric rail_fast ship" oneway="0"/>
    <type id="highway.track" priority="1" numLanes="1" speed="5.56" disallow="tram rail_urban rail rail_electric rail_fast ship" oneway="0"/>
    <type id="highway.trunk" priority="13" numLanes="2" speed="27.78" disallow="pedestrian bicycle tram rail_urban rail rail_electric rail_fast ship" oneway="0"/>
    <type id="highway.trunk_link" priority="8" numLanes="1" speed="22.22" disallow="pedestrian bicycle tram rail_urban rail rail_electric rail_fast ship" oneway="0"/>
    <type id="highway.unclassified" priority="4" numLanes="1" speed="13.89" disallow="tram rail_urban rail rail_electric rail_fast ship" oneway="0"/>
    <type id="highway.unsurfaced" priority="1" numLanes="1" speed="8.33" disallow="tram rail_urban rail rail_electric rail_fast ship" oneway="0"/>
    <type id="railway.highspeed" priority="21" numLanes="1" speed="69.44" allow="rail_fast" oneway="1"/>
    <type id="railway.light_rail" priority="19" numLanes="1" speed="27.78" allow="rail_urban" oneway="1"/>
    <type id="railway.preserved" priority="16" numLanes="1" speed="27.78" allow="rail" oneway="1"/>
    <type id="railway.rail" priority="20" numLanes="1" speed="44.44" allow="rail" oneway="1"/>
    <type id="railway.subway" priority="18" numLanes="1" speed="27.78" allow="rail_urban" oneway="1"/>
    <type id="railway.tram" priority="17" numLanes="1" speed="13.89" allow="tram" oneway="1"/>

    <edge id=":10094766677_0" function="internal">
        <lane id=":10094766677_0_0" index="0" allow="pedestrian bicycle" speed="2.78" length="5.24" width="2.00" shape="1564.77,2066.06 1565.95,2071.16"/>
    </edge>
    <edge id=":10094766677_1" function="internal">
        <lane id=":10094766677_1_0" index="0" allow="pedestrian bicycle" speed="2.78" length="4.35" width="2.00" shape="1564.77,2066.06 1564.89,2067.34 1564.54,2068.15 1563.72,2068.49 1562.44,2068.35"/>
    </edge>
    <edge id=":10094778282_0" function="internal">
        <lane id=":10094778282_0_0" index="0" allow="pedestrian bicycle" speed="5.56" length="5.25" width="2.00" shape="1795.93,1884.00 1795.44,1884.75 1795.21,1885.84 1795.23,1887.28 1795.52,1889.05"/>
    </edge>
    <edge id=":10094778282_1" function="internal">
        <lane id=":10094778282_1_0" index="0" disallow="tram rail_urban rail rail_electric rail_fast ship" speed="8.33" length="5.34" shape="1795.93,1884.00 1792.04,1887.65"/>
    </edge>
    <edge id=":10094778282_2" function="internal">
        <lane id=":10094778282_2_0" index="0" disallow="tram rail_urban rail rail_electric rail_fast ship" speed="3.65" length="4.67" shape="1795.93,1884.00 1794.51,1884.24 1793.67,1883.93 1793.41,1883.07 1793.74,1881.67"/>
    </edge>
    <edge id=":10094778282_3" function="internal">
        <lane id=":10094778282_3_0" index="0" disallow="tram rail_urban rail rail_electric rail_fast ship" speed="8.33" length="5.34" shape="1789.85,1885.32 1793.74,1881.67"/>
    </edge>
    <edge id=":10094778282_4" function="internal">
        <lane id=":10094778282_4_0" index="0" allow="pedestrian bicycle" speed="5.56" length="9.11" width="2.00" shape="1789.85,1885.32 1791.73,1884.12 1793.30,1884.34 1794.56,1885.99 1795.52,1889.05"/>
    </edge>
    <edge id=":10094778282_5" function="internal">
        <lane id=":10094778282_5_0" index="0" disallow="tram rail_urban rail rail_electric rail_fast ship" speed="3.65" length="4.67" shape="1789.85,1885.32 1791.27,1885.08 1792.11,1885.39 1792.37,1886.25 1792.04,1887.65"/>
    </edge>
    <edge id=":10094851171_0" function="internal">
        <lane id=":10094851171_0_0" index="0" disallow="tram rail_urban rail rail_electric rail_fast ship" speed="13.89" length="7.03" shape="1143.50,2131.74 1137.07,2128.89"/>
    </edge>
    <edge id=":10094851171_1" function="internal">
        <lane id=":10094851171_1_0" index="0" disallow="tram rail_urban rail rail_electric rail_fast ship" speed="3.65" length="2.34" shape="1143.50,2131.74 1142.74,2130.52 1142.70,2129.62"/>
    </edge>
    <edge id=":10094851171_4" function="internal">
        <lane id=":10094851171_4_0" index="0" disallow="tram rail_urban rail rail_electric rail_fast ship" speed="3.65" length="2.34" shape="1142.70,2129.62 1143.40,2129.06 1144.82,2128.82"/>
    </edge>
    <edge id=":10094851171_2" function="internal">
        <lane id=":10094851171_2_0" index="0" disallow="tram rail_urban rail rail_electric rail_fast ship" speed="13.89" length="7.05" shape="1138.38,2125.96 1144.82,2128.82"/>
    </edge>
    <edge id=":10094851171_3" function="internal">
        <lane id=":10094851171_3_0" index="0" disallow="tram rail_urban rail rail_electric rail_fast ship" speed="3.65" length="2.34" shape="1138.38,2125.96 1139.15,2127.18 1139.19,2128.08"/>
    </edge>
    <edge id=":10094851171_5" function="internal">
        <lane id=":10094851171_5_0" index="0" disallow="tram rail_urban rail rail_electric rail_fast ship" speed="3.65" length="2.34" shape="1139.19,2128.08 1138.50,2128.64 1137.07,2128.89"/>
    </edge>
    <edge id=":10094851177_0" function="internal">
        <lane id=":10094851177_0_0" index="0" disallow="tram rail_urban rail rail_electric rail_fast ship" speed="5.56" length="1.12" shape="1125.80,2099.03 1124.68,2098.97"/>
    </edge>
    <edge id=":10094851177_1" function="internal">
        <lane id=":10094851177_1_0" index="0" disallow="tram rail_urban rail rail_electric rail_fast ship" speed="3.65" length="2.34" shape="1125.80,2099.03 1124.64,2098.17 1124.28,2097.35"/>
    </edge>
    <edge id=":10094851177_4" function="internal">
        <lane id=":10094851177_4_0" index="0" disallow="tram rail_urban rail rail_electric rail_fast ship" speed="3.65" length="2.34" shape="1124.28,2097.35 1124.72,2096.57 1125.96,2095.84"/>
    </edge>
    <edge id=":10094851177_2" function="internal">
        <lane id=":10094851177_2_0" index="0" disallow="tram rail_urban rail rail_electric rail_fast ship" speed="5.56" length="1.12" shape="1124.84,2095.78 1125.96,2095.84"/>
    </edge>
    <edge id=":10094851177_3" function="internal">
        <lane id=":10094851177_3_0" index="0" disallow="tram rail_urban rail rail_electric rail_fast ship" speed="3.65" length="2.34" shape="1124.84,2095.78 1126.00,2096.64 1126.36,2097.46"/>
    </edge>
    <edge id=":10094851177_5" function="internal">
        <lane id=":10094851177_5_0" index="0" disallow="tram rail_urban rail rail_electric rail_fast ship" speed="3.65" length="2.34" shape="1126.36,2097.46 1125.92,2098.24 1124.68,2098.97"/>
    </edge>
    <edge id=":101437041_0" function="internal">
        <lane id=":101437041_0_0" index="0" disallow="tram rail_urban rail rail_electric rail_fast ship" speed="8.33" length="5.59" shape="1628.48,1636.86 1628.01,1635.28 1627.61,1634.21 1627.05,1633.22 1626.08,1631.88"/>
    </edge>
    <edge id=":101437041_1" function="internal">
        <lane id=":101437041_1_0" index="0" disallow="tram rail_urban rail rail_electric rail_fast ship" speed="3.65" length="2.34" shape="1628.48,1636.86 1628.91,1635.49 1629.56,1634.87"/>
    </edge>
    <edge id=":101437041_4" function="internal">
        <lane id=":101437041_4_0" index="0" disallow="tram rail_urban rail rail_electric rail_fast ship" speed="3.65" length="2.34" shape="1629.56,1634.87 1630.44,1635.03 1631.55,1635.95"/>
    </edge>
    <edge id=":101437041_2" function="internal">
        <lane id=":101437041_2_0" index="0" disallow="tram rail_urban rail rail_electric rail_fast ship" speed="8.33" length="6.73" shape="1628.64,1629.95 1629.81,1631.57 1630.49,1632.75 1630.98,1634.04 1631.55,1635.95"/>
    </edge>
    <edge id=":101437041_3" function="internal">
        <lane id=":101437041_3_0" index="0" disallow="tram rail_urban rail rail_electric rail_fast ship" speed="3.65" length="2.34" shape="1628.64,1629.95 1628.72,1631.39 1628.32,1632.20"/>
    </edge>
    <edge id=":101437041_5" function="internal">
        <lane id=":101437041_5_0" index="0" disallow="tram rail_urban rail rail_electric rail_fast ship" speed="3.65" length="2.34" shape="1628.32,1632.20 1627.44,1632.36 1626.08,1631.88"/>
    </edge>
    <edge id=":101437054_0" function="internal">
        <lane id=":101437054_0_0" index="0" allow="pedestrian delivery bicycle" speed="5.56" length="5.65" shape="1753.45,1667.63 1751.84,1667.29 1750.70,1667.34 1749.56,1667.68 1747.98,1668.24"/>
    </edge>
    <edge id=":101437054_1" function="internal">
        <lane id=":101437054_1_0" index="0" allow="pedestrian delivery bicycle" speed="3.65" length="2.34" shape="1753.45,1667.63 1752.51,1666.53 1752.34,1665.65"/>
    </edge>
    <edge id=":101437054_4" function="internal">
        <lane id=":101437054_4_0" index="0" allow="pedestrian delivery bicycle" speed="3.65" length="2.34" shape="1752.34,1665.65 1752.94,1664.99 1754.31,1664.55"/>
    </edge>
    <edge id=":101437054_2" function="internal">
        <lane id=":101437054_2_0" index="0" allow="pedestrian delivery bicycle" speed="5.56" length="7.54" shape="1746.99,1665.19 1749.11,1664.48 1750.64,1664.07 1752.17,1664.07 1754.31,1664.55"/>
    </edge>
    <edge id=":101437054_3" function="internal">
        <lane id=":101437054_3_0" index="0" allow="pedestrian delivery bicycle" speed="3.65" length="2.34" shape="1746.99,1665.19 1748.38,1665.59 1749.01,1666.23"/>
    </edge>
    <edge id=":101437054_5" function="internal">
        <lane id=":101437054_5_0" index="0" allow="pedestrian delivery bicycle" speed="3.65" length="2.34" shape="1749.01,1666.23 1748.87,1667.11 1747.98,1668.24"/>
    </edge>
    <edge id=":1021450237_0" function="internal">
        <lane id=":1021450237_0_0" index="0" disallow="tram rail_urban rail rail_electric rail_fast ship" speed="9.51" length="9.02" shape="1295.85,1586.99 1296.50,1590.32 1297.19,1592.85 1297.91,1594.55 1298.65,1595.44"/>
    </edge>
    <edge id=":1021450237_1" function="internal">
        <lane id=":1021450237_1_0" index="0" disallow="tram rail_urban rail rail_electric rail_fast ship" speed="8.33" length="10.33" shape="1289.56,1590.54 1298.65,1595.44"/>
    </edge>
    <edge id=":1021450237_2" function="internal">
        <lane id=":1021450237_2_0" index="0" disallow="tram rail_urban rail rail_electric rail_fast ship" speed="8.33" length="8.46" shape="1290.54,1595.29 1293.02,1594.75 1294.81,1594.32 1296.50,1594.42 1298.65,1595.44"/>
    </edge>
    <edge id=":1021450268_0" function="internal">
        <lane id=":1021450268_0_0" index="0" disallow="tram rail_urban rail rail_electric rail_fast ship" speed="13.89" length="8.18" shape="1076.24,1816.24 1077.13,1814.04 1078.22,1812.72 1079.30,1811.39 1080.15,1809.18"/>
    </edge>
    <edge id=":1021450268_1" function="internal">
        <lane id=":1021450268_1_0" index="0" disallow="tram rail_urban rail rail_electric rail_fast ship" speed="13.89" length="13.31" shape="1079.34,1817.00 1080.79,1813.42 1082.59,1811.30 1084.41,1809.18 1085.94,1805.62"/>
    </edge>
    <edge id=":1021450268_2" function="internal">
        <lane id=":1021450268_2_0" index="0" disallow="tram rail_urban rail rail_electric rail_fast ship" speed="13.89" length="12.80" shape="1082.45,1817.76 1083.87,1814.33 1085.63,1812.32 1087.43,1810.31 1088.91,1806.90"/>
    </edge>
    <edge id=":1021450274_0" function="internal">
        <lane id=":1021450274_0_0" index="0" disallow="tram rail_urban rail rail_electric rail_fast ship" speed="11.11" length="8.02" shape="1276.11,1601.52 1279.27,1594.15"/>
    </edge>
    <edge id=":1021450274_1" function="internal">
        <lane id=":1021450274_1_0" index="0" disallow="tram rail_urban rail rail_electric rail_fast ship" speed="8.41" length="7.54" shape="1276.11,1601.52 1276.87,1600.35 1278.15,1599.29 1279.95,1598.35 1282.25,1597.52"/>
    </edge>
    <edge id=":10220646009_0" function="internal">
        <lane id=":10220646009_0_0" index="0" disallow="tram rail_urban rail rail_electric rail_fast ship" speed="3.65" length="4.67" shape="1357.51,2026.35 1358.95,2026.45 1359.70,2026.95 1359.75,2027.84 1359.10,2029.13"/>
    </edge>
    <edge id=":11221260383_0" function="internal">
        <lane id=":11221260383_0_0" index="0" allow="pedestrian delivery bicycle" speed="5.56" length="5.92" shape="1075.24,2150.52 1070.48,2154.04"/>
    </edge>
    <edge id=":11221260383_1" function="internal">
        <lane id=":11221260383_1_0" index="0" allow="pedestrian delivery bicycle" speed="3.65" length="2.34" shape="1075.24,2150.52 1073.80,2150.64 1072.99,2150.26"/>
    </edge>
    <edge id=":11221260383_4" function="internal">
        <lane id=":11221260383_4_0" index="0" allow="pedestrian delivery bicycle" speed="3.65" length="2.34" shape="1072.99,2150.26 1072.80,2149.38 1073.25,2148.01"/>
    </edge>
    <edge id=":11221260383_2" function="internal">
        <lane id=":11221260383_2_0" index="0" allow="pedestrian delivery bicycle" speed="5.56" length="5.72" shape="1068.65,2151.42 1073.25,2148.01"/>
    </edge>
    <edge id=":11221260383_3" function="internal">
        <lane id=":11221260383_3_0" index="0" allow="pedestrian delivery bicycle" speed="3.65" length="2.34" shape="1068.65,2151.42 1070.09,2151.39 1070.88,2151.82"/>
    </edge>
    <edge id=":11221260383_5" function="internal">
        <lane id=":11221260383_5_0" index="0" allow="pedestrian delivery bicycle" speed="3.65" length="2.34" shape="1070.88,2151.82 1071.01,2152.70 1070.48,2154.04"/>
    </edge>
    <edge id=":11221260384_0" function="internal">
        <lane id=":11221260384_0_0" index="0" allow="pedestrian delivery bicycle" speed="3.65" length="4.67" shape="1076.86,2145.14 1078.30,2145.02 1079.11,2145.40 1079.30,2146.28 1078.85,2147.65"/>
    </edge>
    <edge id=":11221260393_0" function="internal">
        <lane id=":11221260393_0_0" index="0" allow="pedestrian delivery bicycle" speed="3.65" length="4.67" shape="1040.32,2112.35 1040.75,2110.97 1041.40,2110.36 1042.28,2110.52 1043.39,2111.44"/>
    </edge>
    <edge id=":11377865740_0" function="internal">
        <lane id=":11377865740_0_0" index="0" allow="bicycle" speed="8.33" length="6.61" width="1.00" shape="1923.44,1924.59 1919.07,1919.63"/>
    </edge>
    <edge id=":11377865740_1" function="internal">
        <lane id=":11377865740_1_0" index="0" allow="bicycle" speed="5.55" length="6.86" width="2.00" shape="1923.44,1924.59 1922.27,1923.01 1921.80,1921.70 1921.67,1920.25 1921.48,1918.21"/>
    </edge>
    <edge id=":11377865740_2" function="internal">
        <lane id=":11377865740_2_0" index="0" allow="bicycle" speed="2.04" length="1.46" width="1.00" shape="1923.44,1924.59 1923.38,1924.15 1923.48,1923.89 1923.75,1923.82 1924.19,1923.93"/>
    </edge>
    <edge id=":11377865740_3" function="internal">
        <lane id=":11377865740_3_0" index="0" allow="bicycle" speed="3.17" length="3.63" width="2.00" shape="1919.82,1918.97 1920.71,1919.81 1921.28,1919.96 1921.54,1919.43 1921.48,1918.21"/>
    </edge>
    <edge id=":11377865740_4" function="internal">
        <lane id=":11377865740_4_0" index="0" allow="bicycle" speed="8.33" length="6.61" width="1.00" shape="1919.82,1918.97 1924.19,1923.93"/>
    </edge>
    <edge id=":11377865740_5" function="internal">
        <lane id=":11377865740_5_0" index="0" allow="bicycle" speed="2.04" length="1.46" width="1.00" shape="1919.82,1918.97 1919.88,1919.41 1919.78,1919.67 1919.51,1919.75 1919.07,1919.63"/>
    </edge>
    <edge id=":11598005216_0" function="internal">
        <lane id=":11598005216_0_0" index="0" allow="pedestrian delivery bicycle" speed="5.56" length="3.22" shape="1467.67,1399.25 1464.64,1398.18"/>
    </edge>
    <edge id=":11598005216_1" function="internal">
        <lane id=":11598005216_1_0" index="0" allow="pedestrian delivery bicycle" speed="3.65" length="4.67" shape="1467.67,1399.25 1466.81,1398.09 1466.70,1397.21 1467.34,1396.59 1468.74,1396.23"/>
    </edge>
    <edge id=":11598005216_2" function="internal">
        <lane id=":11598005216_2_0" index="0" allow="pedestrian delivery bicycle" speed="5.56" length="3.23" shape="1465.69,1395.16 1468.74,1396.23"/>
    </edge>
    <edge id=":11598005216_3" function="internal">
        <lane id=":11598005216_3_0" index="0" allow="pedestrian delivery bicycle" speed="3.65" length="4.67" shape="1465.69,1395.16 1466.56,1396.31 1466.67,1397.20 1466.03,1397.82 1464.64,1398.18"/>
    </edge>
    <edge id=":11777965715_0" function="internal">
        <lane id=":11777965715_0_0" index="0" disallow="tram rail_urban rail rail_electric rail_fast ship" speed="5.56" length="5.00" shape="1938.08,2115.60 1936.49,2120.34"/>
    </edge>
    <edge id=":11777965715_1" function="internal">
        <lane id=":11777965715_1_0" index="0" disallow="tram rail_urban rail rail_electric rail_fast ship" speed="3.65" length="4.67" shape="1938.08,2115.60 1936.94,2116.48 1936.05,2116.61 1935.42,2115.97 1935.04,2114.58"/>
    </edge>
    <edge id=":11777965715_2" function="internal">
        <lane id=":11777965715_2_0" index="0" disallow="tram rail_urban rail rail_electric rail_fast ship" speed="5.56" length="5.00" shape="1933.45,2119.32 1935.04,2114.58"/>
    </edge>
    <edge id=":11777965715_3" function="internal">
        <lane id=":11777965715_3_0" index="0" disallow="tram rail_urban rail rail_electric rail_fast ship" speed="3.65" length="4.67" shape="1933.45,2119.32 1934.59,2118.44 1935.48,2118.31 1936.11,2118.95 1936.49,2120.34"/>
    </edge>
    <edge id=":126309199_0" function="internal">
        <lane id=":126309199_0_0" index="0" allow="bicycle" speed="2.04" length="1.46" width="1.00" shape="1477.29,1909.82 1477.24,1909.37 1477.35,1909.11 1477.62,1909.05 1478.05,1909.17"/>
    </edge>
    <edge id=":126309204_0" function="internal">
        <lane id=":126309204_0_0" index="0" disallow="tram rail_urban rail rail_electric rail_fast ship" speed="3.65" length="4.67" shape="1395.90,2015.89 1397.34,2015.87 1398.12,2016.31 1398.24,2017.20 1397.70,2018.53"/>
    </edge>
    <edge id=":126335748_0" function="internal">
        <lane id=":126335748_0_0" index="0" disallow="tram rail_urban rail rail_electric rail_fast ship" speed="3.65" length="4.67" shape="2065.66,1519.42 2067.06,1519.77 2067.70,1520.39 2067.60,1521.28 2066.73,1522.43"/>
    </edge>
    <edge id=":126335762_0" function="internal">
        <lane id=":126335762_0_0" index="0" disallow="tram rail_urban rail rail_electric rail_fast ship" speed="3.65" length="4.67" shape="2120.65,1618.51 2121.64,1617.46 2122.49,1617.20 2123.21,1617.73 2123.80,1619.05"/>
    </edge>
    <edge id=":1312807477_0" function="internal">
        <lane id=":1312807477_0_0" index="0" allow="pedestrian delivery bicycle" speed="6.54" length="6.33" shape="1915.20,1739.51 1913.17,1739.32 1911.52,1739.50 1910.25,1740.04 1909.38,1740.94"/>
    </edge>
    <edge id=":1312807477_1" function="internal">
        <lane id=":1312807477_1_0" index="0" allow="pedestrian delivery bicycle" speed="6.71" length="11.43" shape="1915.20,1739.51 1912.10,1738.53 1910.31,1736.83 1909.83,1734.41 1910.66,1731.27"/>
    </edge>
    <edge id=":1312807477_2" function="internal">
        <lane id=":1312807477_2_0" index="0" allow="pedestrian delivery bicycle" speed="3.65" length="4.67" shape="1915.20,1739.51 1914.14,1738.52 1913.88,1737.67 1914.40,1736.94 1915.72,1736.35"/>
    </edge>
    <edge id=":1312807477_3" function="internal">
        <lane id=":1312807477_3_0" index="0" allow="pedestrian delivery bicycle" speed="4.83" length="5.31" shape="1913.61,1732.52 1913.22,1733.98 1913.45,1735.11 1914.28,1735.90 1915.72,1736.35"/>
    </edge>
    <edge id=":1312807477_4" function="internal">
        <lane id=":1312807477_4_0" index="0" disallow="tram rail_urban rail rail_electric rail_fast ship" speed="8.33" length="9.44" shape="1913.61,1732.52 1912.53,1735.11 1911.75,1736.86 1910.84,1738.55 1909.38,1740.94"/>
    </edge>
    <edge id=":1312807477_5" function="internal">
        <lane id=":1312807477_5_0" index="0" disallow="tram rail_urban rail rail_electric rail_fast ship" speed="3.65" length="2.34" shape="1913.61,1732.52 1912.41,1733.31 1911.51,1733.37"/>
    </edge>
    <edge id=":1312807477_9" function="internal">
        <lane id=":1312807477_9_0" index="0" disallow="tram rail_urban rail rail_electric rail_fast ship" speed="3.65" length="2.34" shape="1911.51,1733.37 1910.93,1732.69 1910.66,1731.27"/>
    </edge>
    <edge id=":1312807477_6" function="internal">
        <lane id=":1312807477_6_0" index="0" disallow="tram rail_urban rail rail_electric rail_fast ship" speed="8.33" length="8.91" shape="1906.67,1739.22 1908.06,1736.97 1908.91,1735.37 1909.64,1733.71 1910.66,1731.27"/>
    </edge>
    <edge id=":1312807477_7" function="internal">
        <lane id=":1312807477_7_0" index="0" allow="pedestrian delivery bicycle" speed="6.95" length="4.38" shape="1906.67,1739.22 1908.18,1737.56 1910.08,1736.58"/>
    </edge>
    <edge id=":1312807477_8" function="internal">
        <lane id=":1312807477_8_0" index="0" disallow="tram rail_urban rail rail_electric rail_fast ship" speed="3.65" length="2.34" shape="1906.67,1739.22 1907.99,1738.64 1908.88,1738.73"/>
    </edge>
    <edge id=":1312807477_10" function="internal">
        <lane id=":1312807477_10_0" index="0" allow="pedestrian delivery bicycle" speed="6.95" length="5.69" shape="1910.08,1736.58 1910.19,1736.53 1912.70,1736.13 1915.72,1736.35"/>
    </edge>
    <edge id=":1312807477_11" function="internal">
        <lane id=":1312807477_11_0" index="0" disallow="tram rail_urban rail rail_electric rail_fast ship" speed="3.65" length="2.34" shape="1908.88,1738.73 1909.34,1739.49 1909.38,1740.94"/>
    </edge>
    <edge id=":1312812805_0" function="internal">
        <lane id=":1312812805_0_0" index="0" allow="pedestrian delivery bicycle" speed="5.56" length="7.33" shape="1634.67,1499.92 1633.03,1501.34 1631.97,1502.41 1631.15,1503.67 1630.25,1505.63"/>
    </edge>
    <edge id=":1312812805_1" function="internal">
        <lane id=":1312812805_1_0" index="0" allow="pedestrian delivery bicycle" speed="6.91" length="9.90" shape="1634.67,1499.92 1632.40,1501.38 1630.19,1501.80 1628.02,1501.18 1625.90,1499.52"/>
    </edge>
    <edge id=":1312812805_2" function="internal">
        <lane id=":1312812805_2_0" index="0" allow="pedestrian delivery bicycle" speed="3.65" length="4.67" shape="1634.67,1499.92 1633.24,1500.10 1632.41,1499.76 1632.19,1498.89 1632.57,1497.50"/>
    </edge>
    <edge id=":1312812805_3" function="internal">
        <lane id=":1312812805_3_0" index="0" allow="pedestrian delivery bicycle" speed="5.10" length="4.94" shape="1628.20,1497.30 1629.26,1498.13 1630.34,1498.44 1631.45,1498.23 1632.57,1497.50"/>
    </edge>
    <edge id=":1312812805_4" function="internal">
        <lane id=":1312812805_4_0" index="0" allow="pedestrian delivery bicycle" speed="6.95" length="9.12" shape="1628.20,1497.30 1629.78,1499.33 1630.65,1501.39 1630.81,1503.49 1630.25,1505.63"/>
    </edge>
    <edge id=":1312812805_5" function="internal">
        <lane id=":1312812805_5_0" index="0" disallow="tram rail_urban rail rail_electric rail_fast ship" speed="3.65" length="4.67" shape="1628.20,1497.30 1628.46,1498.72 1628.16,1499.56 1627.30,1499.83 1625.90,1499.52"/>
    </edge>
    <edge id=":1312812805_6" function="internal">
        <lane id=":1312812805_6_0" index="0" allow="pedestrian delivery bicycle" speed="6.08" length="5.37" shape="1627.31,1504.38 1627.59,1503.19 1627.45,1501.99 1626.89,1500.76 1625.90,1499.52"/>
    </edge>
    <edge id=":1312812805_7" function="internal">
        <lane id=":1312812805_7_0" index="0" allow="pedestrian delivery bicycle" speed="5.56" length="8.80" shape="1627.31,1504.38 1628.38,1502.02 1629.35,1500.51 1630.61,1499.21 1632.57,1497.50"/>
    </edge>
    <edge id=":1312812805_8" function="internal">
        <lane id=":1312812805_8_0" index="0" allow="pedestrian delivery bicycle" speed="3.65" length="4.67" shape="1627.31,1504.38 1628.51,1503.59 1629.41,1503.53 1629.99,1504.21 1630.25,1505.63"/>
    </edge>
    <edge id=":1313517775_0" function="internal">
        <lane id=":1313517775_0_0" index="0" allow="pedestrian delivery bicycle" speed="5.56" length="9.87" shape="1841.31,1854.85 1839.36,1856.69 1837.26,1857.52 1835.02,1857.32 1832.63,1856.10"/>
    </edge>
    <edge id=":1313517775_1" function="internal">
        <lane id=":1313517775_1_0" index="0" allow="pedestrian delivery bicycle" speed="3.65" length="4.67" shape="1841.31,1854.85 1839.94,1855.29 1839.06,1855.10 1838.68,1854.29 1838.80,1852.85"/>
    </edge>
    <edge id=":1313517775_2" function="internal">
        <lane id=":1313517775_2_0" index="0" allow="pedestrian delivery bicycle" speed="5.11" length="4.93" shape="1834.47,1853.48 1835.66,1854.09 1836.78,1854.19 1837.83,1853.78 1838.80,1852.85"/>
    </edge>
    <edge id=":1313517775_3" function="internal">
        <lane id=":1313517775_3_0" index="0" allow="pedestrian delivery bicycle" speed="3.65" length="4.67" shape="1834.47,1853.48 1834.99,1854.82 1834.86,1855.71 1834.07,1856.13 1832.63,1856.10"/>
    </edge>
    <edge id=":1313517792_0" function="internal">
        <lane id=":1313517792_0_0" index="0" allow="pedestrian delivery bicycle" speed="4.66" length="6.41" shape="1881.99,1787.85 1881.42,1785.92 1880.56,1785.10 1879.41,1785.40 1877.97,1786.81"/>
    </edge>
    <edge id=":1313517792_1" function="internal">