<?xml version="1.0" encoding="UTF-8"?>

<!-- generated on Mon Apr 29 07:21:07 2024 by Eclipse SUMO polyconvert Version 1.5.0
<configuration xmlns:xsi="http://www.w3.org/2001/XMLSchema-instance" xsi:noNamespaceSchemaLocation="http://sumo.dlr.de/xsd/polyconvertConfiguration.xsd">

    <input>
        <net-file value="osm.net.xml"/>
        <osm-files value="osm_bbox.osm.xml"/>
        <osm.keep-full-type value="true"/>
        <type-file value="/home/f2md/F2MD/Programs/sumo-1.5.0/data/typemap/osmPolyconvert.typ.xml"/>
    </input>

    <output>
        <output-file value="osm.poly.xml"/>
    </output>

    <processing>
        <poi-layer-offset value="5"/>
    </processing>

    <report>
        <verbose value="true"/>
    </report>

</configuration>
-->

<additional xmlns:xsi="http://www.w3.org/2001/XMLSchema-instance" xsi:noNamespaceSchemaLocation="http://sumo.dlr.de/xsd/additional_file.xsd">
    <location netOffset="-331486.02,-6581092.51" convBoundary="-643.06,-0.00,3565.34,3668.73" origBoundary="18.025316,59.335843,18.098801,59.367982" projParameter="+proj=utm +zone=34 +ellps=WGS84 +datum=WGS84 +units=m +no_defs"/>

    <poly id="1063540711" type="building.apartments" color="255,230,230" fill="1" layer="-1.00" shape="1595.786778,1650.248927 1607.135232,1645.856792 1610.619217,1655.258897 1627.067894,1649.147683 1621.182044,1633.573901 1618.177087,1634.643086 1608.761022,1638.437020 1605.416424,1629.742385 1590.548182,1635.538652 1595.786778,1650.248927"/>
    <poly id="1065865518" type="natural.wood" color="140,196,107" fill="0" layer="-4.00" shape="2104.473719,2224.175876 2038.101603,2226.126423 1921.028232,2261.119020 1814.030095,2286.728780 1752.160451,2291.741854 1746.824959,2226.123480 1680.017589,2207.114627 1587.994402,2225.803812 1441.501389,2237.099695 1428.057375,2235.251619 1429.003261,2226.891679 1429.635705,2213.884740 1429.374240,2207.707848 1415.631448,2162.754618 1402.165691,2116.216985 1400.200683,2100.091192 1403.937673,2076.164709 1410.783685,2057.140846 1424.317349,2032.904288 1441.222851,2009.076383 1460.418170,1986.295929 1476.374444,1971.263137 1512.721497,1947.357691 1534.445025,1974.096123 1547.236128,1980.611978 1548.013494,1984.034265 1549.410295,1990.138739 1553.552055,2008.253605 1571.581411,2087.149194 1710.608894,2057.232405 1711.804958,2053.109806 1769.369374,2040.625836 1766.905357,2030.710349 1800.554191,2023.462530 1799.561915,2018.388286 1789.254592,1971.453890 1791.200893,1967.298258 1788.510609,1954.315255 1787.899070,1951.420836 1785.944469,1941.694741 1747.347470,1949.985903 1752.457236,1924.984717 1777.719589,1904.937985 1800.230682,1883.696954 1822.172711,1861.165415 1832.525305,1868.168783 1873.828573,1875.146694 1912.278387,1827.937834 1891.368433,1811.219051 1909.954180,1789.125814 2020.999019,1806.225350 2028.341454,1778.862905"/>
    <poly id="1066052805" type="landuse.flowerbed" color="194,194,130" fill="1" layer="-3.00" shape="1696.346191,1972.015255 1698.442279,1971.387606 1697.833383,1969.329353 1695.731611,1969.957252 1696.346191,1972.015255"/>
    <poly id="1066052811" type="leisure.garden" color="207,245,201" fill="1" layer="-2.00" shape="1686.852786,1990.820750 1698.928657,1987.968943 1709.399165,2036.512755 1697.484677,2041.342173 1696.957668,2038.945800 1701.770748,2036.536940 1695.679599,2023.391751 1693.723230,2023.701033 1693.458498,2022.475025 1692.730165,2019.128606 1689.747262,2004.552916 1688.992551,2000.995804 1686.852786,1990.820750"/>
    <poly id="1066052825" type="leisure.garden" color="207,245,201" fill="1" layer="-2.00" shape="1670.779445,2046.846272 1657.796715,2047.463521 1647.650106,1998.403761 1658.578657,1996.003845 1660.354458,1995.602158 1663.258714,2009.166623 1664.291029,2013.982620 1666.815549,2025.779789 1667.353168,2028.287194 1668.443698,2033.390531 1670.779445,2046.846272"/>
    <poly id="1071845064" type="building.yes" color="255,230,230" fill="1" layer="-1.00" shape="1080.436791,1480.387327 1084.504591,1483.775438 1088.263015,1479.271619 1084.195214,1475.883504 1080.436791,1480.387327"/>
    <poly id="1071859252" type="natural.water" color="181,209,209" fill="0" layer="-4.00" shape="463.248183,3668.733180 469.608821,3658.437254 479.281790,3651.852206 488.153567,3652.338785 503.269004,3641.943743 504.318947,3634.704985 508.814141,3623.923359 511.144590,3615.914065 503.077884,3602.680035 502.026579,3594.519958 505.437144,3583.920338 513.350643,3571.291937 532.009285,3550.068528 549.839746,3521.600722 555.650921,3505.843323 561.056178,3498.243854 569.704006,3490.734516 575.075449,3482.244529 584.026768,3479.260010 596.206917,3470.545698 615.484277,3450.800602 623.582679,3437.194167 627.883038,3420.857267 633.485090,3408.197997 640.931638,3395.289584 649.855783,3391.046435 669.399405,3379.976080 683.937036,3371.659201 692.780278,3362.257069 699.205346,3351.334315 703.790671,3338.586492 701.698540,3320.816249 692.058450,3306.369350 675.975847,3290.914987 669.253055,3286.028429 663.025496,3289.348970 656.311821,3284.283621 651.798844,3284.941145 646.308488,3280.379028 643.690285,3267.560681 640.818716,3261.087072 639.503158,3252.225074 643.588560,3243.089835 649.688443,3232.660912 656.613009,3207.086459 659.370619,3179.834869 660.736480,3166.493988 664.756097,3157.283648 668.680145,3150.408011 671.261546,3133.545376 673.083922,3125.870995 680.912380,3111.931062 694.334480,3098.333868 698.639449,3099.269010 709.205024,3090.180792 719.618458,3083.563615 727.899078,3076.215971 734.281220,3071.238432 740.567107,3063.577909 747.984557,3055.376573 752.733358,3049.122326 753.628142,3043.886504 757.280758,3037.814703 761.067483,3023.987372 764.086306,3009.915351 766.220962,3000.933722 768.624409,2990.825125 770.805360,2979.421794 774.950651,2964.820347 779.051040,2956.777379 783.137467,2952.782658 787.799257,2953.545975 798.701508,2948.055866 807.991326,2936.370735 817.120288,2927.090115 821.872933,2918.862170 828.216263,2907.608823 829.952326,2891.687029 835.644793,2876.794057 841.991413,2857.266951 845.428161,2848.116149 852.998540,2838.469871 859.287163,2833.296016 862.884414,2826.223255 866.084011,2822.635919 869.795122,2816.204844 875.469827,2805.527610 881.234891,2799.841784 890.049506,2796.685754 904.655798,2786.259416 908.731263,2787.918614 923.026430,2786.526852 935.528496,2781.925220 953.172134,2776.705550 965.207654,2771.979735 976.799761,2767.652720 992.921638,2767.273044 1002.965308,2766.928505 1012.314199,2765.678129 1020.171321,2764.549599 1030.591263,2766.017139 1040.041591,2765.643223 1045.700606,2763.340941 1053.337117,2764.686494 1057.063873,2762.971562 1064.421783,2763.939208 1071.738550,2759.734895 1078.441574,2756.840069 1082.498355,2753.192679 1086.304570,2750.314616 1089.084718,2744.961988 1091.826690,2734.760622 1093.908473,2725.848482 1102.039735,2708.406087 1115.279593,2687.024499 1117.011737,2677.670687 1112.155513,2663.903026 1105.148908,2659.429647 1087.917640,2658.163067 1068.160195,2655.257797 1048.907611,2646.141788 1044.477458,2643.416549 1001.337412,2620.417048 971.885022,2588.348439 953.681439,2574.525528 936.023559,2561.971968 930.118306,2560.650266 926.650791,2556.399491 925.800388,2551.854342 919.927169,2548.301147 914.712632,2549.591514 907.071686,2548.157206 902.056468,2540.585305 902.284466,2534.553960 890.882282,2524.299113 885.607698,2522.180144 883.776440,2515.158474 876.589151,2507.905881 872.573431,2509.399629 868.487376,2503.013130 871.390617,2499.026387 872.692935,2493.215030 871.019674,2490.657691 869.575297,2486.328437 864.672313,2482.576206 865.547880,2478.311375 869.075495,2476.593948 875.030819,2451.040765 879.007730,2444.174229 887.229463,2429.548414 889.220040,2421.409572 884.516544,2399.551299 878.700079,2390.219707 876.846278,2380.121513 882.973014,2371.018819 888.095127,2351.579597 897.124727,2331.153239 912.433239,2316.358409 929.109685,2305.450294 935.620573,2299.229792 941.086361,2286.253841 943.743955,2278.130092 943.735121,2274.974912 939.210167,2256.241948 939.581920,2254.352205 939.776980,2252.972060 956.497799,2246.656099 962.219849,2244.217140 982.166586,2226.150809 984.067128,2219.956200 992.934028,2213.062791 1006.576264,2202.534750 1008.203017,2192.984855 1008.343609,2182.274228 997.470005,2160.956699 991.322321,2146.332001 976.990565,2121.242727 969.039100,2105.103440 962.421583,2094.915157 949.347962,2087.053398 927.676086,2074.677567 925.413577,2075.915148 889.672471,2095.149937 886.081071,2095.822007 882.423248,2101.804633 874.605672,2104.113562 866.779030,2114.696536 865.659648,2116.931633 860.789915,2115.095784 855.974638,2111.919475 821.709500,2105.097829 800.501275,2103.830302 789.554541,2104.137262 779.390154,2106.293989 773.627854,2110.652881 757.603247,2152.832085 742.439439,2176.285024 728.473693,2185.412293 719.725057,2191.241803 714.580857,2195.539926 710.191476,2218.392406 710.655455,2224.872547 711.584213,2229.637197 710.335606,2235.758446 708.207503,2241.305437 703.681036,2245.408918 696.775999,2247.231733 690.735009,2246.328960 676.489177,2240.025461 665.277951,2231.669467 654.216154,2222.961208 646.664810,2211.889386 643.537092,2209.664293 641.866350,2203.706031 645.891099,2196.379952 640.431042,2161.487103 627.168472,2121.543721 619.092824,2097.125780 616.213016,2082.144696 614.161569,2069.791812 614.071622,2055.578937 617.096538,2025.081908 613.641093,1978.916173 607.851661,1964.320698 595.636956,1951.337344 586.724521,1944.507456 576.898106,1938.766308 560.674329,1934.624968 559.587230,1927.581521 556.418956,1927.398825 555.897355,1931.681471 554.413657,1931.479735 553.038919,1931.295463 545.646873,1925.368252 536.553917,1917.041172 535.526813,1916.094386 539.607070,1910.271056 536.902794,1907.971479 531.968634,1913.286355 531.076186,1912.679256 529.933445,1911.436543 529.871420,1906.064759 521.913233,1900.854060 500.360706,1896.994209 485.017844,1900.898167 469.359379,1912.565811 460.816741,1918.297546 456.755597,1922.369489 452.032525,1925.768363 445.204591,1938.694091 442.198134,1947.536215 432.205932,1958.829629 433.255677,1973.356708 432.148712,1987.912712 436.930448,1991.859390 433.939236,1995.660815 431.690613,2003.744497 427.958991,2009.206802 427.996245,2015.427135 423.997430,2032.174490 428.658469,2041.222304 427.647520,2050.890122 423.508084,2057.552511 408.794883,2078.299580 391.282511,2108.827481 392.894624,2120.374676 400.722676,2138.804243 397.240762,2149.496239 396.815528,2160.041234 406.208611,2171.922796 408.219555,2180.530832 411.356095,2182.822252 418.376521,2180.904584 431.037870,2193.176186 471.129357,2230.789630 485.258761,2248.560278 486.648764,2262.291713 481.607724,2278.260177 484.609714,2289.701048 482.857965,2304.352588 478.302102,2315.605143 475.346664,2335.584359 472.633688,2357.816362 478.560955,2359.493218 484.290086,2361.323843 492.082125,2344.486080 508.899644,2320.244912 528.671481,2301.626284 559.186917,2281.337592 584.450486,2271.886450 592.600312,2276.943768 608.471571,2279.718146 615.357858,2266.957366 626.204778,2269.798742 646.606466,2288.573846 641.971938,2320.257354 640.768783,2352.156541 639.102847,2374.397650 639.965157,2383.692334 648.705758,2395.012408 656.809806,2399.046031 662.077592,2423.711280 655.342371,2440.256447 639.661799,2437.016281 635.173084,2430.547524 624.927956,2424.579600 610.788573,2426.433814 595.184471,2430.047986 577.121071,2435.076030 545.224644,2433.727099 520.141767,2423.891320 508.262323,2411.384037 504.731577,2413.157697 501.207510,2415.209827 511.468131,2430.108301 521.949996,2443.324395 520.915372,2469.250683 528.538014,2477.698715 528.171965,2481.506146 528.080822,2482.402235 525.001383,2492.028095 520.495492,2522.858687 525.555014,2543.585765 523.440169,2557.495185 519.049576,2568.104788 513.992889,2573.971566 510.113912,2582.897028 508.233028,2593.997290 504.143328,2601.382201 496.126558,2608.919278 481.679390,2611.646283 476.573009,2612.932461 470.929635,2615.714376 463.818830,2623.267026 464.033397,2633.348715 463.548349,2642.803612 464.965543,2654.838957 470.512873,2661.684199 472.440725,2675.603595 483.427355,2696.858956 483.796366,2716.311372 476.301025,2740.573429 481.529321,2747.544360 484.138093,2759.493314 489.460008,2767.419039 485.435306,2782.026637 481.246560,2788.713508 474.979205,2784.620983 471.012132,2769.008115 463.959871,2763.266754 461.195656,2751.280116 455.963195,2745.881620 443.135095,2743.652924 431.471385,2744.951840 413.096361,2739.089396 404.223607,2728.768135 393.337766,2718.112663 375.212354,2690.083170 369.207395,2683.447966 360.429868,2678.474820 348.571409,2670.661493 339.176799,2669.863836 330.836589,2673.446079 322.270098,2676.804244 318.711959,2684.098839 311.875189,2702.667509 299.407967,2720.717244 289.446242,2730.716380 284.941970,2739.134705 280.224566,2756.070395 276.048375,2785.682505 272.822013,2812.074459 267.697163,2823.430720 245.644984,2853.269549 225.566609,2883.321755 200.149103,2915.551926 180.702409,2940.212870 156.129455,2964.544626 134.211730,2989.182052 107.370256,3021.231034 84.268415,3030.132276 75.782722,3036.687685 73.535847,3044.136017 71.453357,3052.335270 76.021183,3068.110610 82.772805,3074.511381 92.746786,3079.006842 107.542442,3081.336231 120.568730,3065.792014 136.768970,3052.492744 151.239235,3042.526547 162.479921,3038.011872 171.455802,3037.221997 208.356508,3021.295518 216.061836,3020.606904 222.859844,3017.182193 230.298065,3011.130920 239.923054,3007.145563 276.695935,2991.916808 324.209539,2976.021134 332.882300,2975.836113 342.759768,2973.044059 353.024226,2975.497883 359.324335,2977.001813 367.449553,2977.945123 381.343702,2979.200625 396.397555,2987.975838 415.905900,2988.881515 428.830865,2996.892895 439.705201,3010.894094 453.206833,3024.198724 457.716471,3039.341436 467.167503,3061.412041 478.257358,3089.877145 484.469144,3109.638613 484.955776,3121.102036 478.254524,3143.611688 441.504015,3188.520277 389.903420,3236.364257 388.022946,3238.109303 382.302579,3244.384959 377.531339,3249.603720"/>
    <poly id="107237353" type="building.apartments" color="255,230,230" fill="1" layer="-1.00" shape="1404.391956,1790.383659 1414.651090,1774.621083 1400.348051,1765.351375 1390.088944,1781.113990 1404.391956,1790.383659"/>
    <poly id="107237354" type="building.apartments" color="255,230,230" fill="1" layer="-1.00" shape="1448.965623,1795.941441 1452.573954,1798.224017 1462.637532,1804.592469 1453.021855,1819.713226 1439.355657,1811.061982 1448.965623,1795.941441"/>
    <poly id="107237356" type="building.apartments" color="255,230,230" fill="1" layer="-1.00" shape="1459.456657,1833.523084 1443.298844,1858.187552 1446.365347,1860.192988 1444.796812,1862.581530 1448.226952,1864.827366 1445.927541,1868.329766 1474.901626,1887.232382 1476.224482,1885.211512 1480.504143,1887.999681 1482.541820,1884.887971 1486.540348,1887.499004 1502.404399,1863.271410 1491.745729,1856.315870 1478.538794,1876.501270 1454.407120,1860.752175 1468.414831,1839.360543 1459.456657,1833.523084"/>
    <poly id="107237358" type="building.apartments" color="255,230,230" fill="1" layer="-1.00" shape="1525.256631,1789.027297 1552.283141,1806.890300 1554.712204,1803.226146 1557.767810,1805.243303 1559.433822,1802.739009 1562.483251,1804.745292 1581.628745,1775.890847 1579.153426,1774.249475 1581.160590,1771.217225 1577.389548,1768.729854 1579.279054,1765.870050 1552.270443,1748.028357 1545.938525,1757.573721 1569.305017,1773.011518 1554.762630,1794.950388 1531.518980,1779.585314 1525.256631,1789.027297"/>
    <poly id="107237360" type="building.yes" color="255,230,230" fill="1" layer="-1.00" shape="1490.259735,1844.840891 1511.344874,1858.650742 1516.868113,1862.264929 1518.948840,1859.095588 1522.560507,1861.456129 1525.105684,1857.586121 1527.973028,1859.466608 1546.322349,1831.550269 1543.554552,1829.732275 1545.992991,1826.023099 1541.970733,1823.390749 1544.441309,1819.635552 1518.231513,1802.472476 1511.252153,1813.083470 1533.199287,1827.457511 1518.889144,1849.230189 1496.853877,1834.793224 1490.259735,1844.840891"/>
    <poly id="107237361" type="building.apartments" color="255,230,230" fill="1" layer="-1.00" shape="1421.118709,1763.385783 1431.436114,1748.423512 1417.835759,1739.078099 1407.518375,1754.040408 1421.118709,1763.385783"/>
    <poly id="107237363" type="building.apartments" color="255,230,230" fill="1" layer="-1.00" shape="1383.535946,1791.316140 1373.738737,1806.188676 1383.694247,1812.427897 1386.042291,1819.950998 1389.947797,1825.866549 1396.341029,1832.285473 1403.870250,1836.836720 1411.406045,1839.603636 1418.083916,1840.479453 1425.612096,1840.882861 1435.164065,1846.627115 1445.095780,1830.801026 1432.260227,1822.391883 1427.291558,1829.145431 1419.429633,1829.436930 1412.643180,1827.908036 1408.876219,1825.643656 1405.108762,1823.368151 1401.341301,1821.092650 1398.769118,1818.162232 1395.842600,1813.140054 1393.541101,1807.443548 1396.694562,1802.264287 1395.253569,1801.224060 1396.355766,1799.235210 1383.535946,1791.316140"/>
    <poly id="107237365" type="building.school" color="255,230,230" fill="1" layer="-1.00" shape="1497.486186,1776.761326 1515.964127,1788.902274 1485.823281,1834.633515 1467.345934,1822.503844 1497.486186,1776.761326"/>
    <poly id="1103128259" type="building.yes" color="255,230,230" fill="1" layer="-1.00" shape="1297.433686,2186.955892 1347.847836,2204.697834 1346.799346,2160.231941 1297.433686,2186.955892"/>
    <poly id="1103128261" type="building.yes" color="255,230,230" fill="1" layer="-1.00" shape="1235.577666,2116.745135 1204.124295,2143.347237 1238.085216,2157.611879 1250.034782,2130.289104 1235.577666,2116.745135"/>
    <poly id="1103128262" type="building.yes" color="255,230,230" fill="1" layer="-1.00" shape="1219.457814,2140.918433 1233.776311,2147.466033 1241.378499,2132.946565 1234.813847,2127.282568 1219.457814,2140.918433"/>
    <poly id="1103128263" type="building.yes" color="255,230,230" fill="1" layer="-1.00" shape="1259.714294,2134.934516 1252.608583,2164.674551 1282.562932,2179.629657 1274.444110,2134.818459 1259.714294,2134.934516"/>
    <poly id="1103128264" type="building.yes" color="255,230,230" fill="1" layer="-1.00" shape="1261.901734,2160.584005 1273.333529,2165.330373 1269.280115,2141.001075 1266.670078,2141.462138 1261.901734,2160.584005"/>
    <poly id="1103128265" type="building.yes" color="255,230,230" fill="1" layer="-1.00" shape="1295.263304,2121.632638 1283.744737,2130.894897 1297.092801,2178.987299 1342.807015,2153.506308 1295.263304,2121.632638"/>
    <poly id="1103128266" type="building.yes" color="255,230,230" fill="1" layer="-1.00" shape="1294.332483,2136.381120 1302.952837,2164.723386 1323.810805,2152.416882 1296.855719,2133.827645 1294.332483,2136.381120"/>
    <poly id="1103128267" type="building.yes" color="255,230,230" fill="1" layer="-1.00" shape="1307.767193,2094.988047 1302.784034,2113.249612 1347.907747,2141.896370 1355.771354,2097.594156 1307.767193,2094.988047"/>
    <poly id="1103128268" type="building.yes" color="255,230,230" fill="1" layer="-1.00" shape="1312.629721,2105.811969 1341.387022,2125.369809 1345.311703,2106.987826 1312.629721,2105.811969"/>
    <poly id="1103128271" type="amenity.bicycle_parking" color="237,199,199" fill="1" layer="-1.00" shape="1125.801410,2113.963324 1134.764420,2118.495180 1135.350630,2117.331900 1126.393301,2112.799792 1125.801410,2113.963324"/>
    <poly id="1103128272" type="amenity.bicycle_parking" color="237,199,199" fill="1" layer="-1.00" shape="1121.289657,2124.845060 1130.502262,2128.841791 1131.024484,2127.647890 1121.811384,2123.640030 1121.289657,2124.845060"/>
    <poly id="11153139" type="building.university" color="255,230,230" fill="1" layer="-1.00" shape="1883.767521,1572.191351 1873.102134,1590.679909 1849.316570,1631.902022 1862.442214,1639.151300 1869.787057,1626.595941 1872.201667,1627.894516 1883.359196,1608.559153 1891.087887,1612.991068 1895.715871,1605.071274 1905.629869,1588.009653 1895.724531,1582.123681 1896.185941,1581.222491 1889.512045,1577.468873 1890.083688,1576.484775 1883.767521,1572.191351"/>
    <poly id="11382785" type="building.university" color="255,230,230" fill="1" layer="-1.00" shape="1321.858387,2004.158784 1309.689872,2014.442046 1303.710276,2019.567917 1296.783446,2024.646467 1284.261051,2032.202472 1271.375214,2038.748757 1270.024053,2035.875948 1272.279379,2032.799087 1273.727579,2028.208010 1273.491267,2023.635657 1271.381212,2018.923137 1268.266017,2015.816109 1263.692423,2013.721346 1258.675242,2013.441411 1256.406297,2014.021200 1252.456260,2016.113719 1249.366036,2019.495118 1247.450806,2024.597473 1247.993950,2030.828815 1249.800359,2034.339359 1252.802174,2037.328731 1255.481838,2038.827049 1258.415567,2039.890421 1259.880562,2043.148456 1243.931009,2047.878988 1228.244865,2051.226443 1212.565143,2053.302538 1195.603272,2054.710637 1168.681638,2056.213752 1169.178577,2067.832771 1188.560044,2067.064596 1188.677782,2069.211412 1188.798474,2071.425000 1159.684704,2073.181260 1154.356364,2088.001711 1196.908404,2086.018933 1214.646136,2084.777224 1240.621283,2080.673640 1260.291917,2074.986877 1280.552729,2067.322814 1300.003383,2057.687612 1314.077980,2049.182167 1325.309164,2041.783682 1350.193808,2019.308686 1339.273017,2011.573490 1329.539810,2020.790131 1328.275307,2019.619478 1326.987581,2018.438702 1331.930623,2013.949651 1321.858387,2004.158784"/>
    <poly id="11393493" type="building.yes" color="255,230,230" fill="1" layer="-1.00" shape="1877.409685,1815.290465 1846.246661,1854.707975 1853.113028,1860.125553 1859.573985,1851.946532 1877.423302,1866.012389 1909.125414,1825.902391 1888.645392,1809.766801 1881.644923,1818.627393 1877.409685,1815.290465"/>
    <poly id="11393493#1" type="leisure.sports_centre" color="207,245,201" fill="1" layer="-2.00" shape="1877.409685,1815.290465 1846.246661,1854.707975 1853.113028,1860.125553 1859.573985,1851.946532 1877.423302,1866.012389 1909.125414,1825.902391 1888.645392,1809.766801 1881.644923,1818.627393 1877.409685,1815.290465"/>
    <poly id="11393493#2" type="sport.multi" color="79,230,125" fill="1" layer="-2.00" shape="1877.409685,1815.290465 1846.246661,1854.707975 1853.113028,1860.125553 1859.573985,1851.946532 1877.423302,1866.012389 1909.125414,1825.902391 1888.645392,1809.766801 1881.644923,1818.627393 1877.409685,1815.290465"/>
    <poly id="1211106859" type="natural.water" color="181,209,209" fill="0" layer="-4.00" shape="1182.246363,2292.693209 1171.532726,2284.871301 1166.540571,2281.546344 1159.187205,2279.028341 1153.374732,2277.880572 1149.301781,2276.544336 1146.267051,2274.481991 1142.598637,2270.708226 1140.737098,2267.367427 1139.872453,2263.781809 1138.707139,2260.220647 1136.017799,2256.314359 1133.518544,2253.358596 1129.241942,2248.965033 1118.204710,2240.912273 1112.076857,2236.756762 1104.474533,2231.060861 1096.648148,2225.062679 1093.715615,2221.323288 1091.442106,2216.651545 1090.267376,2212.878953 1087.913478,2205.233613 1084.106641,2192.032782 1082.811883,2187.864090 1077.937475,2180.129616 1073.967854,2179.201445 1069.904816,2178.478121 1064.985610,2176.677662 1062.784328,2174.667683 1062.145084,2171.674222 1063.031155,2168.925447 1064.523504,2166.239036 1068.874732,2164.340403 1074.434758,2164.796754 1077.926688,2168.567124 1079.088139,2172.039240 1080.732661,2174.977055 1082.629759,2179.119084 1085.421485,2183.020808 1087.831924,2187.441178 1089.119868,2192.613709 1090.947756,2198.665524 1091.798837,2204.258807 1092.641051,2209.651776 1095.092786,2217.192434 1099.625566,2224.027714 1106.201226,2229.166923 1113.653760,2233.665214 1129.436576,2244.228651 1139.986615,2250.407432 1150.376092,2252.958317 1159.543321,2257.481175 1165.621982,2262.843177 1169.699712,2268.405217 1173.465665,2273.869551 1175.282496,2278.516937 1176.190264,2281.019066"/>
    <poly id="1211106882" type="amenity.university" color="237,199,199" fill="1" layer="-1.00" shape="1083.354906,2089.381990 1051.685791,2156.493239 1056.496258,2166.382544 1090.134146,2227.748339 1123.262935,2279.948977 1131.048976,2283.752362 1133.095907,2284.721067 1164.847012,2334.373785 1171.269691,2346.098592 1177.946984,2364.480078 1194.158290,2354.630725 1201.422974,2343.950650 1211.951325,2328.153158 1222.756528,2319.256694 1237.298831,2309.381010 1257.382688,2302.895358 1275.327467,2300.050214 1293.493951,2298.098535 1307.981842,2297.547251 1354.878712,2301.049574 1377.440497,2294.332409 1374.696486,2275.654163 1370.166121,2247.086437 1363.660562,2247.775331 1359.590659,2210.690692 1363.620967,2210.289582 1366.134037,2210.211980 1363.714831,2191.541686 1362.297278,2165.389842 1364.379115,2126.305056 1375.327548,2079.781470 1399.799277,2022.312959 1400.383559,2021.361668 1401.452593,1986.402711 1372.012699,2018.032341 1338.826845,2049.404066 1310.139925,2068.033092 1281.919101,2082.259651 1249.794044,2092.912546 1221.758862,2097.553194 1208.894145,2098.133323 1146.476679,2101.006041 1127.311471,2100.739035 1112.668737,2098.967385 1086.933447,2092.535266 1083.354906,2089.381990"/>
    <poly id="121168989" type="building.yes" color="255,230,230" fill="1" layer="-1.00" shape="1597.338185,1792.915520 1600.807584,1794.245435 1606.559273,1796.455885 1633.981265,1725.322612 1629.500101,1723.647035 1624.760041,1721.782178 1597.338185,1792.915520"/>
    <poly id="121169007" type="amenity.parking" color="184,184,179" fill="1" layer="-1.00" shape="1516.530849,1516.263168 1522.937373,1522.848988 1508.576003,1535.491780 1502.554400,1529.111999 1516.530849,1516.263168"/>
    <poly id="1242611892" type="landuse.flowerbed" color="194,194,130" fill="1" layer="-3.00" shape="1621.876334,1668.287602 1625.746727,1666.700779 1626.084353,1662.995137 1623.065534,1660.006222 1618.893853,1661.862796 1618.711285,1665.985310 1621.876334,1668.287602"/>
    <poly id="1242611892#1" type="man_made.planter" color="255,230,230" fill="1" layer="-1.00" shape="1621.876334,1668.287602 1625.746727,1666.700779 1626.084353,1662.995137 1623.065534,1660.006222 1618.893853,1661.862796 1618.711285,1665.985310 1621.876334,1668.287602"/>
    <poly id="1256697462" type="amenity.bicycle_parking" color="237,199,199" fill="1" layer="-1.00" shape="1935.191323,1527.667431 1942.389586,1528.844640 1940.705668,1539.098947 1933.507423,1537.921741 1935.191323,1527.667431"/>
    <poly id="1256882568" type="amenity.toilets" color="237,199,199" fill="1" layer="-1.00" shape="1681.715238,2021.376132 1681.883731,2022.227274 1682.435858,2024.934745 1693.458498,2022.475025 1692.730165,2019.128606 1681.715238,2021.376132"/>
    <poly id="1256882572" type="amenity.toilets" color="237,199,199" fill="1" layer="-1.00" shape="1673.596964,2024.365654 1674.188667,2026.937576 1675.023804,2026.766939 1676.728663,2026.435289 1676.180458,2023.816847 1673.596964,2024.365654"/>
    <poly id="1256882574" type="amenity.toilets" color="237,199,199" fill="1" layer="-1.00" shape="1678.726611,2006.800700 1686.802027,2005.162267 1686.074745,2001.581646 1678.004514,2003.208702 1678.521851,2005.772754 1678.726611,2006.800700"/>
    <poly id="1256882577" type="amenity.toilets" color="237,199,199" fill="1" layer="-1.00" shape="1678.596473,1984.227090 1679.899354,1983.946623 1680.378255,1986.155561 1679.785992,1986.282034 1679.075375,1986.436028 1678.596473,1984.227090"/>
    <poly id="1256882578" type="amenity.toilets" color="237,199,199" fill="1" layer="-1.00" shape="1679.075375,1986.436028 1678.596473,1984.227090 1677.388725,1984.469912 1677.828339,1986.691733 1678.471746,1986.563003 1679.075375,1986.436028"/>
    <poly id="1256882579" type="amenity.toilets" color="237,199,199" fill="1" layer="-1.00" shape="1676.501747,1986.950946 1676.062131,1984.729125 1677.388725,1984.469912 1677.828339,1986.691733 1677.105866,1986.835099 1676.501747,1986.950946"/>
    <poly id="130381279" type="building.yes" color="255,230,230" fill="1" layer="-1.00" shape="876.252164,1507.905037 874.764208,1514.293257 869.246766,1513.021273 866.686443,1523.995238 872.808022,1525.407705 871.114651,1532.685913 867.599211,1531.871596 863.504022,1549.458878 869.355485,1550.816403 870.389295,1546.388477 879.911607,1548.598053 881.456412,1541.950856 891.743981,1544.338413 894.662076,1531.798709 897.878523,1532.548244 901.629931,1533.419037 905.969816,1514.795130 876.252164,1507.905037"/>
    <poly id="131849205" type="building.apartments" color="255,230,230" fill="1" layer="-1.00" shape="769.689475,1568.781773 813.778479,1466.439866 794.116641,1458.000792 750.021855,1560.332057 769.689475,1568.781773"/>
    <poly id="133170782" type="building.university" color="255,230,230" fill="1" layer="-1.00" shape="1570.638961,2063.730521 1573.096265,2074.772389 1575.250297,2074.298215 1577.055133,2082.425196 1661.948127,2063.615594 1662.431734,2065.802022 1710.652036,2055.111947 1709.089273,2048.078123 1707.747616,2048.382592 1706.377546,2048.688315 1705.283557,2043.763526 1702.277806,2044.420138 1701.986420,2043.106102 1662.054561,2051.958835 1661.642014,2050.092632 1616.009420,2060.200847 1614.624880,2053.984312 1570.638961,2063.730521"/>
    <poly id="136663433" type="building.yes" color="255,230,230" fill="1" layer="-1.00" shape="1186.100537,1694.784164 1181.844829,1689.586761 1162.621331,1681.483316 1168.527885,1668.131499 1167.074382,1667.326063 1206.818207,1577.268472 1214.834376,1580.838920 1209.477853,1592.471465 1214.544788,1595.280301 1218.717951,1586.376179 1248.870575,1599.661108 1240.769161,1618.116330 1229.211968,1613.275157 1224.269301,1625.123540 1236.439320,1629.658842 1231.552923,1640.590398 1218.947166,1635.472262 1214.110309,1647.394037 1226.850560,1651.948689 1222.007230,1662.822606 1209.813671,1657.753179 1205.275624,1669.606002 1217.183345,1674.264339 1214.687525,1680.663515 1202.790554,1676.762937 1195.969954,1688.504864 1203.710168,1692.020578 1186.765481,1704.410979 1182.480564,1698.166733 1186.100537,1694.784164"/>